Version 4.1
SHEET 1 1600 680
WIRE -80 -128 -80 -176
WIRE 448 -48 336 -48
WIRE 864 -48 720 -48
WIRE 1216 -48 1136 -48
WIRE -80 32 -80 -48
WIRE -80 32 -144 32
WIRE -144 64 -144 32
WIRE -80 144 -80 32
WIRE 192 192 192 16
WIRE 576 192 576 16
WIRE 576 192 192 192
WIRE 992 192 992 16
WIRE 992 192 576 192
WIRE -80 256 -80 224
WIRE 576 256 576 192
FLAG -144 64 0
FLAG 576 256 0
FLAG -80 256 VEE
FLAG -80 -176 VCC
FLAG 528 -128 VCC
FLAG 624 -128 VEE
FLAG 944 -128 VCC
FLAG 1040 -128 VEE
FLAG 144 -128 VCC
FLAG 240 -128 VEE
FLAG 1216 -48 Uout_ADC
SYMBOL voltage -80 128 R0
WINDOW 123 0 0 Left 0
WINDOW 39 0 0 Left 0
SYMATTR InstName V1
SYMATTR Value 12
SYMBOL voltage -80 -144 R0
WINDOW 123 0 0 Left 0
WINDOW 39 0 0 Left 0
SYMATTR InstName V2
SYMATTR Value 12
SYMBOL receiver 960 -48 R0
WINDOW 0 -20 -161 Left 2
SYMATTR InstName Receiver
SYMBOL transmitter_4-20mA 544 -48 R0
WINDOW 0 -76 -161 Left 2
SYMATTR InstName Transmitter_4-20mA
SYMBOL LM35_analog_processing 160 -48 R0
WINDOW 0 -84 -164 Left 2
SYMATTR InstName LM35_analog_processing
TEXT -144 344 Left 2 !.step param x 0.8 1.8 0.2
TEXT -144 384 Left 2 !.inc nat_semi.lib
TEXT -144 424 Left 2 !.op
TEXT 1216 -16 Left 2 ;To ADC converter (MAX187)
TEXT -104 -520 Left 4 ;Temperature range -40 to 60 degree C\nAnalog processing 0-5V\nTransmitter current 4-20mA\nReceiver Output votalge to ADC converter 0.8-4V
