Version 4.1
SHEET 1 904 680
WIRE -1984 -1232 -2000 -1232
WIRE -1952 -1232 -1984 -1232
WIRE -1728 -1232 -1792 -1232
WIRE -1616 -1232 -1728 -1232
WIRE -1504 -1232 -1616 -1232
WIRE -1728 -1200 -1728 -1232
WIRE -1984 -1136 -1984 -1232
WIRE -1616 -1136 -1616 -1232
WIRE -1504 -1104 -1504 -1232
WIRE -1872 -1088 -1872 -1136
WIRE -1728 -1088 -1728 -1120
WIRE -1728 -1088 -1872 -1088
WIRE -1872 -1056 -1872 -1088
WIRE -1984 -976 -1984 -1072
WIRE -1872 -976 -1984 -976
WIRE -1616 -976 -1616 -1072
WIRE -1616 -976 -1872 -976
WIRE -1536 -976 -1616 -976
WIRE -1504 -976 -1504 -1024
WIRE -1344 -976 -1504 -976
WIRE -1872 -928 -1872 -976
WIRE -1536 -928 -1536 -976
WIRE -1504 -928 -1504 -976
WIRE -1344 -912 -1344 -976
WIRE -1552 -896 -1568 -896
WIRE -1472 -896 -1488 -896
WIRE -992 -880 -1056 -880
WIRE -832 -880 -912 -880
WIRE -672 -880 -832 -880
WIRE 32 -880 -592 -880
WIRE -1056 -848 -1056 -880
WIRE -1520 -768 -1520 -864
WIRE -1344 -768 -1344 -832
WIRE -1344 -768 -1520 -768
WIRE -1328 -736 -1408 -736
WIRE -1200 -736 -1248 -736
WIRE -832 -736 -832 -880
WIRE -736 -736 -832 -736
WIRE -512 -736 -672 -736
WIRE -1520 -704 -1520 -768
WIRE -160 -640 -160 -720
WIRE -608 -624 -608 -640
WIRE -1328 -608 -1328 -624
WIRE -832 -608 -832 -736
WIRE -640 -608 -832 -608
WIRE -1520 -592 -1520 -624
WIRE -1408 -592 -1408 -736
WIRE -1408 -592 -1520 -592
WIRE -1360 -592 -1408 -592
WIRE -512 -592 -512 -736
WIRE -512 -592 -576 -592
WIRE -432 -592 -512 -592
WIRE -224 -592 -352 -592
WIRE -1200 -576 -1200 -736
WIRE -1200 -576 -1296 -576
WIRE -1184 -576 -1200 -576
WIRE -992 -576 -1184 -576
WIRE -816 -576 -912 -576
WIRE -640 -576 -816 -576
WIRE -1680 -560 -1776 -560
WIRE -1648 -560 -1680 -560
WIRE -1408 -560 -1568 -560
WIRE -1360 -560 -1408 -560
WIRE -1408 -544 -1408 -560
WIRE -1184 -544 -1184 -576
WIRE -608 -544 -608 -560
WIRE -1680 -528 -1680 -560
WIRE -1328 -528 -1328 -544
WIRE -160 -528 -160 -544
WIRE 32 -528 32 -880
WIRE 32 -528 -160 -528
WIRE -1680 -448 -1680 -464
WIRE -1408 -448 -1408 -464
WIRE -1408 -448 -1680 -448
WIRE -1184 -448 -1184 -480
WIRE -1184 -448 -1408 -448
WIRE -1408 -416 -1408 -448
WIRE -816 -416 -816 -576
WIRE -160 -416 -160 -528
WIRE -816 -288 -816 -336
WIRE -160 -288 -160 -336
WIRE -160 -288 -816 -288
WIRE 96 -288 -160 -288
FLAG -512 -592 C
FLAG 96 -288 Iout
IOPIN 96 -288 Out
FLAG -1776 -560 Uin1
IOPIN -1776 -560 In
FLAG -1408 -416 GND2
IOPIN -1408 -416 BiDir
FLAG -1872 -928 GND2
IOPIN -1872 -928 BiDir
FLAG -1056 -848 GND2
IOPIN -1056 -848 BiDir
FLAG -608 -544 VEE2
IOPIN -608 -544 In
FLAG -160 -720 VCC2
IOPIN -160 -720 In
FLAG -608 -640 VCC2
IOPIN -608 -640 In
FLAG -1328 -624 VCC2
IOPIN -1328 -624 In
FLAG -1472 -896 VCC2
IOPIN -1472 -896 In
FLAG -2000 -1232 VCC2
IOPIN -2000 -1232 In
FLAG -1328 -528 VEE2
IOPIN -1328 -528 In
FLAG -1568 -896 VEE2
IOPIN -1568 -896 In
SYMBOL res -896 -896 R90
WINDOW 0 0 56 VBottom 2
WINDOW 3 32 56 VTop 2
SYMATTR InstName R3a
SYMATTR Value 150k
SYMBOL res -576 -896 R90
WINDOW 0 0 56 VBottom 2
WINDOW 3 32 56 VTop 2
SYMATTR InstName R4a
SYMATTR Value 150k
SYMBOL res -896 -592 R90
WINDOW 0 0 56 VBottom 2
WINDOW 3 32 56 VTop 2
SYMATTR InstName R3
SYMATTR Value 150k
SYMBOL res -336 -608 R90
WINDOW 0 0 56 VBottom 2
WINDOW 3 32 56 VTop 2
SYMATTR InstName R4
SYMATTR Value 100
SYMBOL res -800 -320 R180
WINDOW 0 36 76 Left 2
WINDOW 3 36 40 Left 2
SYMATTR InstName R5
SYMATTR Value 150k
SYMBOL res -144 -320 R180
WINDOW 0 36 76 Left 2
WINDOW 3 36 40 Left 2
SYMATTR InstName R1
SYMATTR Value 250
SYMBOL cap -672 -752 R90
WINDOW 0 0 32 VBottom 2
WINDOW 3 32 32 VTop 2
SYMATTR InstName C1
SYMATTR Value 100n
SYMBOL npn -224 -640 R0
SYMATTR InstName Q1
SYMATTR Value BC547B
SYMBOL OpAmps\\opamp2 -608 -656 R0
SYMATTR InstName U1
SYMATTR Value LM741/NS
SYMBOL res -1552 -576 R90
WINDOW 0 0 56 VBottom 2
WINDOW 3 32 56 VTop 2
SYMATTR InstName R7
SYMATTR Value 10k
SYMBOL OpAmps\\opamp2 -1328 -640 R0
WINDOW 3 6 102 Left 2
SYMATTR Value LM741/NS
SYMATTR InstName U2
SYMBOL res -1232 -752 R90
WINDOW 0 0 56 VBottom 2
WINDOW 3 32 56 VTop 2
SYMATTR InstName R10
SYMATTR Value 8k
SYMBOL cap -1200 -544 R0
SYMATTR InstName C3
SYMATTR Value 10n
SYMBOL LM317 -1872 -1200 R0
SYMATTR InstName U4
SYMBOL res -1744 -1216 R0
SYMATTR InstName R11
SYMATTR Value 240
SYMBOL res -1888 -1072 R0
SYMATTR InstName R12
SYMATTR Value 240
SYMBOL OpAmps\\opamp2 -1456 -896 R90
WINDOW 3 6 102 Left 2
SYMATTR Value LM741/NS
SYMATTR InstName U5
SYMBOL res -1520 -1120 R0
SYMATTR InstName R13
SYMATTR Value 10k
SYMBOL res -1360 -928 R0
SYMATTR InstName R14
SYMATTR Value 4.8k
SYMBOL res -1424 -560 R0
SYMATTR InstName R9
SYMATTR Value 8k
SYMBOL res -1536 -720 R0
SYMATTR InstName R15
SYMATTR Value 10k
SYMBOL cap -1632 -1136 R0
SYMATTR InstName C2
SYMATTR Value 10n
SYMBOL cap -2000 -1136 R0
SYMATTR InstName C4
SYMATTR Value 10n
SYMBOL cap -1696 -528 R0
SYMATTR InstName C5
SYMATTR Value 10n
TEXT -1992 -280 Left 2 !.include nat_semi.lib
TEXT -128 -312 Left 2 ;4-20mA
TEXT -1768 -576 Left 2 ;Input
