Version 4.1
SHEET 1 904 680
WIRE -512 -992 -816 -992
WIRE -368 -992 -512 -992
WIRE -160 -992 -208 -992
WIRE 32 -992 -160 -992
WIRE -512 -960 -512 -992
WIRE 32 -896 32 -992
WIRE -512 -864 -512 -880
WIRE -288 -864 -288 -896
WIRE -288 -864 -512 -864
WIRE -816 -832 -816 -992
WIRE -288 -816 -288 -864
WIRE -288 -688 -288 -736
WIRE -160 -640 -160 -992
WIRE 32 -640 32 -816
WIRE -608 -624 -608 -640
WIRE -640 -608 -704 -608
WIRE -512 -592 -576 -592
WIRE -224 -592 -512 -592
WIRE -1072 -576 -1264 -576
WIRE -816 -576 -816 -752
WIRE -816 -576 -992 -576
WIRE -640 -576 -816 -576
WIRE -608 -544 -608 -560
WIRE -160 -528 -160 -544
WIRE -1264 -448 -1264 -496
WIRE -816 -416 -816 -576
WIRE -160 -416 -160 -528
WIRE -704 -320 -704 -608
WIRE -160 -320 -160 -336
WIRE -160 -320 -704 -320
WIRE -160 -288 -160 -320
WIRE -704 -224 -704 -320
WIRE -816 -80 -816 -336
WIRE -704 -80 -704 -144
WIRE -704 -80 -816 -80
WIRE 32 -80 32 -560
WIRE 32 -80 -704 -80
FLAG -144 -416 I1
FLAG -1264 -448 0
FLAG -512 -592 C
FLAG -160 -528 E
FLAG -160 -288 0
FLAG -288 -688 0
FLAG -512 -992 VREF
FLAG -608 -640 VREF
FLAG -608 -544 0
FLAG 32 -992 Loop+
FLAG 32 -80 Loop-
SYMBOL res -976 -592 R90
WINDOW 0 0 56 VBottom 2
WINDOW 3 32 56 VTop 2
SYMATTR InstName R1
SYMATTR Value 37244
SYMBOL res -800 -320 R180
WINDOW 0 36 76 Left 2
WINDOW 3 36 40 Left 2
SYMATTR InstName R3
SYMATTR Value 3.9k
SYMBOL res -144 -320 R180
WINDOW 0 36 76 Left 2
WINDOW 3 36 40 Left 2
SYMATTR InstName R5
SYMATTR Value 20
SYMBOL npn -224 -640 R0
SYMATTR InstName Q1
SYMATTR Value BC547B
SYMBOL voltage -1264 -592 R0
WINDOW 0 41 59 Left 2
WINDOW 3 3 98 Left 2
WINDOW 123 0 0 Left 0
WINDOW 39 0 0 Left 0
SYMATTR InstName V3
SYMATTR Value {x}
SYMBOL res -688 -128 R180
WINDOW 0 36 76 Left 2
WINDOW 3 36 40 Left 2
SYMATTR InstName R4
SYMATTR Value 33
SYMBOL res -832 -848 R0
SYMATTR InstName R2
SYMATTR Value 148977
SYMBOL voltage 32 -912 R0
WINDOW 123 0 0 Left 0
WINDOW 39 0 0 Left 0
SYMATTR InstName V4
SYMATTR Value 12
SYMBOL res 16 -656 R0
SYMATTR InstName R8
SYMATTR Value 200
SYMBOL res -528 -976 R0
SYMATTR InstName R7
SYMATTR Value 240
SYMBOL res -304 -832 R0
SYMATTR InstName R6
SYMATTR Value 680
SYMBOL LM317 -288 -960 M0
SYMATTR InstName U1
SYMBOL OpAmps\\opamp2 -608 -656 R0
SYMATTR InstName U2
SYMATTR Value OPA317
TEXT -1256 -288 Left 2 !.op
TEXT 16 -768 VRight 2 ;4-20mA
TEXT -1256 -600 Left 2 ;Input
TEXT -1256 -352 Left 2 !.step param x 0.5 5 0.5
TEXT -1256 -320 Left 2 !.include OPA317.lib
